Circuit: * C:\Users\Admiral Instruments\source\repos\LightsAndSound\Simulations\GainStage.asc

Direct Newton iteration for .op point succeeded.

Date: Fri Feb 03 09:44:53 2023
Total elapsed time: 0.250 seconds.

tnom = 27
temp = 27
method = trap
totiter = 3
traniter = 0
tranpoints = 0
accept = 0
rejected = 0
matrix size = 17
fillins = 4
solver = Normal
Matrix Compiler1:      63 opcodes
Matrix Compiler2: 1.37 KB object code size
